<routes xmlns:xsi="http://www.w3.org/2001/XMLSchema-instance" xsi:noNamespaceSchemaLocation="http://sumo.dlr.de/xsd/routes_file.xsd">
    <vehicle depart="0.00" id="0">
        <route edges="2Ni 1Ei 0Ei 0Wo" />
    </vehicle>
    <vehicle depart="1.43" id="1">
        <route edges="8Ei 5Si 2Si 1Ei 0Ei 0No" />
    </vehicle>
    <vehicle depart="2.86" id="2">
        <route edges="8Ei 5Si 2Si 1Ei 1No" />
    </vehicle>
    <vehicle depart="4.29" id="3">
        <route edges="6Si 3Si 0Si" />
    </vehicle>
    <vehicle depart="5.71" id="4">
        <route edges="8Ei 5Si 2Si 1Ei 0Ei 0Wo" />
    </vehicle>
    <vehicle depart="7.14" id="5">
        <route edges="0Ni 1Wi 2Wi 5Ni 8Ni 8Eo" />
    </vehicle>
    <vehicle depart="8.57" id="6">
        <route edges="8Ei 7Ei 6Ei 6Wo" />
    </vehicle>
    <vehicle depart="10.00" id="7">
        <route edges="2Ni 5Ni 8Ni 7Ei" />
    </vehicle>
    <vehicle depart="11.43" id="8">
        <route edges="2Ei 5Ni 8Ni 7Ei 6Ei 3Si" />
    </vehicle>
    <vehicle depart="12.86" id="9">
        <route edges="6Wi 7Wi 8Wi 5Si" />
    </vehicle>
    <vehicle depart="14.29" id="10">
        <route edges="6Si 7Wi 8Wi 8Eo" />
    </vehicle>
    <vehicle depart="15.71" id="11">
        <route edges="7Si 4Si 1Si" />
    </vehicle>
    <vehicle depart="17.14" id="12">
        <route edges="6Si 7Wi 4Si 1Si" />
    </vehicle>
    <vehicle depart="18.57" id="13">
        <route edges="5Ei 4Ei 3Ei" />
    </vehicle>
    <vehicle depart="20.00" id="14">
        <route edges="6Si 7Wi 4Si 1Si 0Ei" />
    </vehicle>
    <vehicle depart="21.43" id="15">
        <route edges="5Ei 8Ni 7Ei 6Ei 6So" />
    </vehicle>
    <vehicle depart="22.86" id="16">
        <route edges="6Si 7Wi 8Wi 5Si 2Si 2Eo" />
    </vehicle>
    <vehicle depart="24.29" id="17">
        <route edges="7Si 4Si 1Si 0Ei 0No" />
    </vehicle>
    <vehicle depart="25.71" id="18">
        <route edges="2Ei 5Ni 4Ei 3Ei" />
    </vehicle>
    <vehicle depart="27.14" id="19">
        <route edges="2Ei 5Ni 4Ei 3Ei 3Wo" />
    </vehicle>
    <vehicle depart="28.57" id="20">
        <route edges="0Ni 1Wi 4Ni 7Ni 6Ei" />
    </vehicle>
    <vehicle depart="30.00" id="21">
        <route edges="2Ni 5Ni 4Ei 7Ni 8Wi" />
    </vehicle>
    <vehicle depart="31.43" id="22">
        <route edges="8Ei 5Si 4Ei 3Ei 0Si" />
    </vehicle>
    <vehicle depart="32.86" id="23">
        <route edges="0Wi 1Wi 4Ni 5Wi" />
    </vehicle>
    <vehicle depart="34.29" id="24">
        <route edges="8Ei 7Ei 6Ei 6Wo" />
    </vehicle>
    <vehicle depart="35.71" id="25">
        <route edges="2Ni 5Ni 4Ei 3Ei 6Ni 7Wi" />
    </vehicle>
    <vehicle depart="37.14" id="26">
        <route edges="6Wi 7Wi 8Wi" />
    </vehicle>
    <vehicle depart="38.57" id="27">
        <route edges="6Wi 7Wi 8Wi 5Si 2Si" />
    </vehicle>
    <vehicle depart="40.00" id="28">
        <route edges="7Si 4Si 1Si 0Ei 0No" />
    </vehicle>
    <vehicle depart="41.43" id="29">
        <route edges="2Ni 5Ni 8Ni 8Eo" />
    </vehicle>
    <vehicle depart="42.86" id="30">
        <route edges="2Ei 5Ni 8Ni 7Ei 6Ei 3Si" />
    </vehicle>
    <vehicle depart="44.29" id="31">
        <route edges="8Si 5Si 4Ei 3Ei 0Si" />
    </vehicle>
    <vehicle depart="45.71" id="32">
        <route edges="1Ni 2Wi 5Ni 5Eo" />
    </vehicle>
    <vehicle depart="47.14" id="33">
        <route edges="0Wi 1Wi 2Wi" />
    </vehicle>
    <vehicle depart="48.57" id="34">
        <route edges="7Si 8Wi 5Si 2Si 2No" />
    </vehicle>
    <vehicle depart="50.00" id="35">
        <route edges="7Si 8Wi 5Si 5Eo" />
    </vehicle>
    <vehicle depart="51.43" id="36">
        <route edges="0Wi 1Wi 4Ni 7Ni 8Wi 5Si" />
    </vehicle>
    <vehicle depart="52.86" id="37">
        <route edges="0Ni 3Ni 6Ni 7Wi" />
    </vehicle>
    <vehicle depart="54.29" id="38">
        <route edges="2Ni 5Ni 8Ni 7Ei 6Ei" />
    </vehicle>
    <vehicle depart="55.71" id="39">
        <route edges="1Ni 4Ni 7Ni 8Wi" />
    </vehicle>
    <vehicle depart="57.14" id="40">
        <route edges="1Ni 2Wi 5Ni 5Eo" />
    </vehicle>
    <vehicle depart="58.57" id="41">
        <route edges="2Ni 5Ni 8Ni" />
    </vehicle>
    <vehicle depart="60.00" id="42">
        <route edges="0Wi 1Wi 2Wi 2No" />
    </vehicle>
    <vehicle depart="61.43" id="43">
        <route edges="7Si 4Si 1Si 2Wi" />
    </vehicle>
    <vehicle depart="62.86" id="44">
        <route edges="8Si 5Si 2Si 1Ei 0Ei 0No" />
    </vehicle>
    <vehicle depart="64.29" id="45">
        <route edges="2Ni 1Ei 0Ei 0Wo" />
    </vehicle>
    <vehicle depart="65.71" id="46">
        <route edges="2Ei 5Ni 4Ei 3Ei 3Wo" />
    </vehicle>
    <vehicle depart="67.14" id="47">
        <route edges="8Ei 5Si 2Si 2No" />
    </vehicle>
    <vehicle depart="68.57" id="48">
        <route edges="8Si 5Si 4Ei 1Si" />
    </vehicle>
    <vehicle depart="70.00" id="49">
        <route edges="0Ni 1Wi 4Ni 7Ni 8Wi" />
    </vehicle>
    <vehicle depart="71.43" id="50">
        <route edges="7Si 8Wi 5Si 2Si" />
    </vehicle>
    <vehicle depart="72.86" id="51">
        <route edges="2Ei 1Ei 0Ei 3Ni" />
    </vehicle>
    <vehicle depart="74.29" id="52">
        <route edges="2Ni 5Ni 4Ei 3Ei 3Wo" />
    </vehicle>
    <vehicle depart="75.71" id="53">
        <route edges="5Ei 8Ni 7Ei 6Ei 6Wo" />
    </vehicle>
    <vehicle depart="77.14" id="54">
        <route edges="3Wi 4Wi 5Wi 2Si" />
    </vehicle>
    <vehicle depart="78.57" id="55">
        <route edges="1Ni 2Wi 5Ni 8Ni" />
    </vehicle>
    <vehicle depart="80.00" id="56">
        <route edges="0Ni 1Wi 2Wi 5Ni 8Ni" />
    </vehicle>
    <vehicle depart="81.43" id="57">
        <route edges="2Ni 5Ni 8Ni 7Ei" />
    </vehicle>
    <vehicle depart="82.86" id="58">
        <route edges="0Wi 1Wi 2Wi 5Ni 5Eo" />
    </vehicle>
    <vehicle depart="84.29" id="59">
        <route edges="7Si 4Si 3Ei 3Wo" />
    </vehicle>
    <vehicle depart="85.71" id="60">
        <route edges="8Ei 5Si 4Ei 3Ei 0Si" />
    </vehicle>
    <vehicle depart="87.14" id="61">
        <route edges="8Si 5Si 2Si 1Ei 0Ei" />
    </vehicle>
    <vehicle depart="88.57" id="62">
        <route edges="0Ni 1Wi 2Wi 5Ni 8Ni" />
    </vehicle>
    <vehicle depart="90.00" id="63">
        <route edges="3Wi 4Wi 5Wi 2Si" />
    </vehicle>
    <vehicle depart="91.43" id="64">
        <route edges="5Ei 8Ni 7Ei 6Ei 3Si" />
    </vehicle>
    <vehicle depart="92.86" id="65">
        <route edges="6Wi 7Wi 8Wi 8Eo" />
    </vehicle>
    <vehicle depart="94.29" id="66">
        <route edges="8Si 5Si 2Si 1Ei 0Ei 0Wo" />
    </vehicle>
    <vehicle depart="95.71" id="67">
        <route edges="6Si 7Wi 4Si 1Si 2Wi" />
    </vehicle>
    <vehicle depart="97.14" id="68">
        <route edges="0Ni 1Wi 4Ni 7Ni 6Ei" />
    </vehicle>
    <vehicle depart="98.57" id="69">
        <route edges="8Si 5Si 4Ei 1Si" />
    </vehicle>
    <vehicle depart="100.00" id="70">
        <route edges="8Ei 5Si 2Si 1Ei 0Ei" />
    </vehicle>
    <vehicle depart="101.43" id="71">
        <route edges="7Si 4Si 1Si 0Ei 0Wo" />
    </vehicle>
    <vehicle depart="102.86" id="72">
        <route edges="3Wi 4Wi 5Wi 8Ni" />
    </vehicle>
    <vehicle depart="104.29" id="73">
        <route edges="6Si 3Si 0Si" />
    </vehicle>
    <vehicle depart="105.71" id="74">
        <route edges="2Ni 5Ni 8Ni 8So" />
    </vehicle>
    <vehicle depart="107.14" id="75">
        <route edges="1Ni 4Ni 3Ei 3Wo" />
    </vehicle>
    <vehicle depart="108.57" id="76">
        <route edges="2Ni 5Ni 8Ni 7Ei" />
    </vehicle>
    <vehicle depart="110.00" id="77">
        <route edges="7Si 4Si 3Ei 0Si" />
    </vehicle>
    <vehicle depart="111.43" id="78">
        <route edges="0Ni 1Wi 2Wi 5Ni 8Ni" />
    </vehicle>
    <vehicle depart="112.86" id="79">
        <route edges="2Ei 5Ni 4Ei 3Ei 3Wo" />
    </vehicle>
    <vehicle depart="114.29" id="80">
        <route edges="2Ni 5Ni 8Ni 7Ei 6Ei" />
    </vehicle>
    <vehicle depart="115.71" id="81">
        <route edges="0Ni 3Ni 6Ni" />
    </vehicle>
    <vehicle depart="117.14" id="82">
        <route edges="0Wi 1Wi 2Wi 5Ni" />
    </vehicle>
    <vehicle depart="118.57" id="83">
        <route edges="6Si 3Si 0Si" />
    </vehicle>
    <vehicle depart="120.00" id="84">
        <route edges="7Si 8Wi 5Si 2Si" />
    </vehicle>
    <vehicle depart="121.43" id="85">
        <route edges="8Ei 7Ei 6Ei" />
    </vehicle>
    <vehicle depart="122.86" id="86">
        <route edges="0Wi 1Wi 4Ni 7Ni 8Wi" />
    </vehicle>
    <vehicle depart="124.29" id="87">
        <route edges="6Si 7Wi 8Wi 5Si 2Si 2No" />
    </vehicle>
    <vehicle depart="125.71" id="88">
        <route edges="8Ei 5Si 4Ei 3Ei 0Si" />
    </vehicle>
    <vehicle depart="127.14" id="89">
        <route edges="2Ni 5Ni 8Ni 7Ei 6Ei" />
    </vehicle>
    <vehicle depart="128.57" id="90">
        <route edges="7Si 8Wi 5Si 2Si 1Ei" />
    </vehicle>
    <vehicle depart="130.00" id="91">
        <route edges="0Wi 1Wi 4Ni 7Ni 7So" />
    </vehicle>
    <vehicle depart="131.43" id="92">
        <route edges="1Ni 4Ni 3Ei 6Ni 7Wi" />
    </vehicle>
    <vehicle depart="132.86" id="93">
        <route edges="7Si 4Si 3Ei 0Si" />
    </vehicle>
    <vehicle depart="134.29" id="94">
        <route edges="0Ni 1Wi 2Wi 5Ni 8Ni 7Ei" />
    </vehicle>
    <vehicle depart="135.71" id="95">
        <route edges="0Wi 1Wi 4Ni 5Wi 2Si" />
    </vehicle>
    <vehicle depart="137.14" id="96">
        <route edges="8Si 5Si 4Ei 3Ei 3Wo" />
    </vehicle>
    <vehicle depart="138.57" id="97">
        <route edges="0Wi 1Wi 4Ni 5Wi" />
    </vehicle>
    <vehicle depart="140.00" id="98">
        <route edges="0Ni 1Wi 2Wi 5Ni 5Eo" />
    </vehicle>
    <vehicle depart="141.43" id="99">
        <route edges="1Ni 2Wi 5Ni 5Eo" />
    </vehicle>
    <vehicle depart="142.86" id="100">
        <route edges="7Si 4Si 3Ei 3Wo" />
    </vehicle>
    <vehicle depart="144.29" id="101">
        <route edges="5Ei 2Si 1Ei 0Ei 3Ni" />
    </vehicle>
    <vehicle depart="145.71" id="102">
        <route edges="0Ni 1Wi 4Ni 7Ni 6Ei" />
    </vehicle>
    <vehicle depart="147.14" id="103">
        <route edges="0Wi 1Wi 4Ni 5Wi" />
    </vehicle>
    <vehicle depart="148.57" id="104">
        <route edges="6Si 3Si 0Si 0Wo" />
    </vehicle>
    <vehicle depart="150.00" id="105">
        <route edges="7Si 8Wi 5Si 2Si 1Ei" />
    </vehicle>
    <vehicle depart="151.43" id="106">
        <route edges="6Wi 7Wi 4Si 1Si 2Wi 5Ni" />
    </vehicle>
    <vehicle depart="152.86" id="107">
        <route edges="2Ni 5Ni 4Ei 3Ei 3Wo" />
    </vehicle>
    <vehicle depart="154.29" id="108">
        <route edges="2Ei 5Ni 8Ni 7Ei 6Ei 3Si" />
    </vehicle>
    <vehicle depart="155.71" id="109">
        <route edges="3Wi 4Wi 5Wi" />
    </vehicle>
    <vehicle depart="157.14" id="110">
        <route edges="6Si 7Wi 8Wi 5Si 2Si" />
    </vehicle>
    <vehicle depart="158.57" id="111">
        <route edges="0Wi 1Wi 4Ni 5Wi" />
    </vehicle>
    <vehicle depart="160.00" id="112">
        <route edges="0Ni 1Wi 2Wi 5Ni 5Eo" />
    </vehicle>
    <vehicle depart="161.43" id="113">
        <route edges="5Ei 4Ei 3Ei" />
    </vehicle>
    <vehicle depart="162.86" id="114">
        <route edges="2Ni 5Ni 8Ni 8Eo" />
    </vehicle>
    <vehicle depart="164.29" id="115">
        <route edges="1Ni 4Ni 7Ni 6Ei 6So" />
    </vehicle>
    <vehicle depart="165.71" id="116">
        <route edges="8Ei 7Ei 6Ei" />
    </vehicle>
    <vehicle depart="167.14" id="117">
        <route edges="6Wi 7Wi 4Si 1Si 1No" />
    </vehicle>
    <vehicle depart="168.57" id="118">
        <route edges="8Si 5Si 2Si 1Ei 1No" />
    </vehicle>
    <vehicle depart="170.00" id="119">
        <route edges="7Si 4Si 1Si" />
    </vehicle>
    <vehicle depart="171.43" id="120">
        <route edges="1Ni 2Wi 5Ni 5Eo" />
    </vehicle>
    <vehicle depart="172.86" id="121">
        <route edges="1Ni 2Wi 5Ni 8Ni 8So" />
    </vehicle>
    <vehicle depart="174.29" id="122">
        <route edges="1Ni 4Ni 7Ni 8Wi" />
    </vehicle>
    <vehicle depart="175.71" id="123">
        <route edges="5Ei 2Si 1Ei 0Ei" />
    </vehicle>
    <vehicle depart="177.14" id="124">
        <route edges="6Wi 7Wi 8Wi 5Si" />
    </vehicle>
    <vehicle depart="178.57" id="125">
        <route edges="1Ni 4Ni 3Ei 3Wo" />
    </vehicle>
    <vehicle depart="180.00" id="126">
        <route edges="8Ei 5Si 4Ei 3Ei 6Ni" />
    </vehicle>
    <vehicle depart="181.43" id="127">
        <route edges="8Si 5Si 4Ei 3Ei 3Wo" />
    </vehicle>
    <vehicle depart="182.86" id="128">
        <route edges="5Ei 8Ni 7Ei 6Ei" />
    </vehicle>
    <vehicle depart="184.29" id="129">
        <route edges="5Ei 8Ni 7Ei 6Ei 6So" />
    </vehicle>
    <vehicle depart="185.71" id="130">
        <route edges="6Si 3Si 0Si 0No" />
    </vehicle>
    <vehicle depart="187.14" id="131">
        <route edges="3Wi 4Wi 7Ni 7So" />
    </vehicle>
    <vehicle depart="188.57" id="132">
        <route edges="0Wi 1Wi 2Wi 5Ni 8Ni 8So" />
    </vehicle>
    <vehicle depart="190.00" id="133">
        <route edges="0Ni 1Wi 2Wi 5Ni 5Eo" />
    </vehicle>
    <vehicle depart="191.43" id="134">
        <route edges="8Si 5Si 2Si 1Ei 0Ei" />
    </vehicle>
    <vehicle depart="192.86" id="135">
        <route edges="2Ei 5Ni 8Ni 7Ei 6Ei 3Si" />
    </vehicle>
    <vehicle depart="194.29" id="136">
        <route edges="2Ni 5Ni 8Ni" />
    </vehicle>
    <vehicle depart="195.71" id="137">
        <route edges="0Wi 1Wi 2Wi 2No" />
    </vehicle>
    <vehicle depart="197.14" id="138">
        <route edges="1Ni 4Ni 3Ei 6Ni 7Wi" />
    </vehicle>
    <vehicle depart="198.57" id="139">
        <route edges="3Wi 4Wi 5Wi" />
    </vehicle>
    <vehicle depart="200.00" id="140">
        <route edges="2Ni 5Ni 4Ei 7Ni" />
    </vehicle>
    <vehicle depart="201.43" id="141">
        <route edges="5Ei 2Si 1Ei 0Ei 0No" />
    </vehicle>
    <vehicle depart="202.86" id="142">
        <route edges="6Wi 7Wi 4Si 1Si 1No" />
    </vehicle>
    <vehicle depart="204.29" id="143">
        <route edges="2Ei 5Ni 8Ni 7Ei 6Ei 6Wo" />
    </vehicle>
    <vehicle depart="205.71" id="144">
        <route edges="3Wi 4Wi 5Wi 8Ni 8Eo" />
    </vehicle>
    <vehicle depart="207.14" id="145">
        <route edges="3Wi 4Wi 5Wi 8Ni 8Eo" />
    </vehicle>
    <vehicle depart="208.57" id="146">
        <route edges="0Ni 3Ni 6Ni" />
    </vehicle>
    <vehicle depart="210.00" id="147">
        <route edges="7Si 4Si 3Ei 3Wo" />
    </vehicle>
    <vehicle depart="211.43" id="148">
        <route edges="7Si 4Si 1Si" />
    </vehicle>
    <vehicle depart="212.86" id="149">
        <route edges="6Si 7Wi 8Wi 5Si 2Si 1Ei" />
    </vehicle>
    <vehicle depart="214.29" id="150">
        <route edges="1Ni 4Ni 3Ei 6Ni" />
    </vehicle>
    <vehicle depart="215.71" id="151">
        <route edges="0Wi 1Wi 2Wi 5Ni 8Ni 8So" />
    </vehicle>
    <vehicle depart="217.14" id="152">
        <route edges="0Wi 1Wi 2Wi 2No" />
    </vehicle>
    <vehicle depart="218.57" id="153">
        <route edges="1Ni 4Ni 7Ni" />
    </vehicle>
    <vehicle depart="220.00" id="154">
        <route edges="0Ni 3Ni 6Ni 7Wi" />
    </vehicle>
    <vehicle depart="221.43" id="155">
        <route edges="8Si 7Ei 6Ei 6Wo" />
    </vehicle>
    <vehicle depart="222.86" id="156">
        <route edges="6Si 7Wi 4Si 1Si 0Ei" />
    </vehicle>
    <vehicle depart="224.29" id="157">
        <route edges="0Wi 1Wi 2Wi" />
    </vehicle>
    <vehicle depart="225.71" id="158">
        <route edges="6Si 7Wi 4Si 1Si 1No" />
    </vehicle>
    <vehicle depart="227.14" id="159">
        <route edges="0Ni 1Wi 2Wi 2Eo" />
    </vehicle>
    <vehicle depart="228.57" id="160">
        <route edges="2Ni 1Ei 0Ei 0Wo" />
    </vehicle>
    <vehicle depart="230.00" id="161">
        <route edges="8Ei 5Si 4Ei 3Ei 3Wo" />
    </vehicle>
    <vehicle depart="231.43" id="162">
        <route edges="0Wi 1Wi 2Wi 5Ni 5Eo" />
    </vehicle>
    <vehicle depart="232.86" id="163">
        <route edges="1Ni 4Ni 7Ni 6Ei 6Wo" />
    </vehicle>
    <vehicle depart="234.29" id="164">
        <route edges="5Ei 8Ni 7Ei 6Ei 6So" />
    </vehicle>
    <vehicle depart="235.71" id="165">
        <route edges="2Ei 5Ni 4Ei 3Ei 3Wo" />
    </vehicle>
    <vehicle depart="237.14" id="166">
        <route edges="6Si 7Wi 8Wi 8Eo" />
    </vehicle>
    <vehicle depart="238.57" id="167">
        <route edges="0Wi 1Wi 2Wi 2Eo" />
    </vehicle>
    <vehicle depart="240.00" id="168">
        <route edges="1Ni 2Wi 5Ni 8Ni 8Eo" />
    </vehicle>
    <vehicle depart="241.43" id="169">
        <route edges="0Wi 1Wi 4Ni 5Wi 2Si" />
    </vehicle>
    <vehicle depart="242.86" id="170">
        <route edges="6Wi 7Wi 8Wi 5Si" />
    </vehicle>
    <vehicle depart="244.29" id="171">
        <route edges="6Wi 7Wi 8Wi 5Si 2Si 2Eo" />
    </vehicle>
    <vehicle depart="245.71" id="172">
        <route edges="6Si 7Wi 8Wi 5Si 2Si 2Eo" />
    </vehicle>
    <vehicle depart="247.14" id="173">
        <route edges="8Si 5Si 4Ei 3Ei 0Si" />
    </vehicle>
    <vehicle depart="248.57" id="174">
        <route edges="2Ei 5Ni 8Ni 8So" />
    </vehicle>
    <vehicle depart="250.00" id="175">
        <route edges="0Ni 3Ni 6Ni" />
    </vehicle>
    <vehicle depart="251.43" id="176">
        <route edges="8Si 5Si 4Ei 3Ei 0Si" />
    </vehicle>
    <vehicle depart="252.86" id="177">
        <route edges="3Wi 4Wi 1Si 2Wi" />
    </vehicle>
    <vehicle depart="254.29" id="178">
        <route edges="3Wi 4Wi 5Wi 2Si" />
    </vehicle>
    <vehicle depart="255.71" id="179">
        <route edges="2Ni 5Ni 8Ni 7Ei 7So" />
    </vehicle>
    <vehicle depart="257.14" id="180">
        <route edges="8Si 5Si 2Si 2No" />
    </vehicle>
    <vehicle depart="258.57" id="181">
        <route edges="5Ei 2Si 1Ei 0Ei 0Wo" />
    </vehicle>
    <vehicle depart="260.00" id="182">
        <route edges="0Ni 3Ni 6Ni" />
    </vehicle>
    <vehicle depart="261.43" id="183">
        <route edges="1Ni 4Ni 7Ni 6Ei" />
    </vehicle>
    <vehicle depart="262.86" id="184">
        <route edges="5Ei 8Ni 7Ei 6Ei 6So" />
    </vehicle>
    <vehicle depart="264.29" id="185">
        <route edges="2Ni 5Ni 4Ei 3Ei 6Ni" />
    </vehicle>
    <vehicle depart="265.71" id="186">
        <route edges="0Wi 1Wi 2Wi 5Ni" />
    </vehicle>
    <vehicle depart="267.14" id="187">
        <route edges="2Ei 5Ni 4Ei 3Ei 6Ni" />
    </vehicle>
    <vehicle depart="268.57" id="188">
        <route edges="8Si 5Si 2Si 1Ei 0Ei 0No" />
    </vehicle>
    <vehicle depart="270.00" id="189">
        <route edges="6Wi 7Wi 4Si 5Wi" />
    </vehicle>
    <vehicle depart="271.43" id="190">
        <route edges="2Ni 5Ni 4Ei 3Ei 3Wo" />
    </vehicle>
    <vehicle depart="272.86" id="191">
        <route edges="1Ni 4Ni 7Ni 6Ei 6Wo" />
    </vehicle>
    <vehicle depart="274.29" id="192">
        <route edges="8Si 5Si 2Si" />
    </vehicle>
    <vehicle depart="275.71" id="193">
        <route edges="8Si 5Si 2Si 2No" />
    </vehicle>
    <vehicle depart="277.14" id="194">
        <route edges="3Wi 4Wi 5Wi 8Ni 8Eo" />
    </vehicle>
    <vehicle depart="278.57" id="195">
        <route edges="0Ni 1Wi 2Wi 5Ni 8Ni 8So" />
    </vehicle>
    <vehicle depart="280.00" id="196">
        <route edges="3Wi 4Wi 7Ni 8Wi 5Si" />
    </vehicle>
    <vehicle depart="281.43" id="197">
        <route edges="2Ei 5Ni 8Ni 7Ei 6Ei 3Si" />
    </vehicle>
    <vehicle depart="282.86" id="198">
        <route edges="6Si 3Si 0Si 1Wi" />
    </vehicle>
    <vehicle depart="284.29" id="199">
        <route edges="0Ni 1Wi 4Ni 7Ni 6Ei" />
    </vehicle>
    <vehicle depart="285.71" id="200">
        <route edges="2Ei 5Ni 8Ni 7Ei 7So" />
    </vehicle>
    <vehicle depart="287.14" id="201">
        <route edges="0Wi 1Wi 2Wi 5Ni 8Ni 8So" />
    </vehicle>
    <vehicle depart="288.57" id="202">
        <route edges="0Ni 3Ni 6Ni 6Wo" />
    </vehicle>
    <vehicle depart="290.00" id="203">
        <route edges="2Ni 5Ni 8Ni 7Ei 6Ei 6Wo" />
    </vehicle>
    <vehicle depart="291.43" id="204">
        <route edges="2Ni 5Ni 8Ni 7Ei 6Ei 6So" />
    </vehicle>
    <vehicle depart="292.86" id="205">
        <route edges="6Wi 7Wi 4Si 5Wi" />
    </vehicle>
    <vehicle depart="294.29" id="206">
        <route edges="2Ei 5Ni 8Ni 7Ei 6Ei 3Si" />
    </vehicle>
    <vehicle depart="295.71" id="207">
        <route edges="3Wi 4Wi 7Ni 8Wi 5Si" />
    </vehicle>
    <vehicle depart="297.14" id="208">
        <route edges="7Si 8Wi 5Si 2Si 2No" />
    </vehicle>
    <vehicle depart="298.57" id="209">
        <route edges="6Si 7Wi 4Si 1Si 1No" />
    </vehicle>
    <vehicle depart="300.00" id="210">
        <route edges="0Wi 1Wi 4Ni 5Wi" />
    </vehicle>
    <vehicle depart="301.43" id="211">
        <route edges="6Wi 7Wi 4Si 5Wi" />
    </vehicle>
    <vehicle depart="302.86" id="212">
        <route edges="5Ei 2Si 1Ei 0Ei 3Ni" />
    </vehicle>
    <vehicle depart="304.29" id="213">
        <route edges="6Wi 7Wi 4Si 5Wi 8Ni" />
    </vehicle>
    <vehicle depart="305.71" id="214">
        <route edges="0Ni 1Wi 2Wi 5Ni 8Ni 8So" />
    </vehicle>
    <vehicle depart="307.14" id="215">
        <route edges="6Wi 7Wi 8Wi 5Si 2Si 2Eo" />
    </vehicle>
    <vehicle depart="308.57" id="216">
        <route edges="8Ei 5Si 4Ei 3Ei" />
    </vehicle>
    <vehicle depart="310.00" id="217">
        <route edges="3Wi 4Wi 1Si 2Wi" />
    </vehicle>
    <vehicle depart="311.43" id="218">
        <route edges="2Ni 5Ni 8Ni 7Ei 6Ei 6So" />
    </vehicle>
    <vehicle depart="312.86" id="219">
        <route edges="5Ei 2Si 1Ei 0Ei 0No" />
    </vehicle>
    <vehicle depart="314.29" id="220">
        <route edges="0Ni 1Wi 2Wi 5Ni 8Ni" />
    </vehicle>
    <vehicle depart="315.71" id="221">
        <route edges="0Wi 1Wi 2Wi 5Ni 8Ni 8So" />
    </vehicle>
    <vehicle depart="317.14" id="222">
        <route edges="6Wi 7Wi 8Wi 5Si 5Eo" />
    </vehicle>
    <vehicle depart="318.57" id="223">
        <route edges="6Wi 7Wi 8Wi 5Si 2Si 2Eo" />
    </vehicle>
    <vehicle depart="320.00" id="224">
        <route edges="0Wi 1Wi 2Wi 2Eo" />
    </vehicle>
    <vehicle depart="321.43" id="225">
        <route edges="0Wi 1Wi 2Wi 2Eo" />
    </vehicle>
    <vehicle depart="322.86" id="226">
        <route edges="2Ni 5Ni 4Ei 3Ei 6Ni 7Wi" />
    </vehicle>
    <vehicle depart="324.29" id="227">
        <route edges="1Ni 2Wi 5Ni 8Ni" />
    </vehicle>
    <vehicle depart="325.71" id="228">
        <route edges="6Wi 7Wi 8Wi 5Si 2Si" />
    </vehicle>
    <vehicle depart="327.14" id="229">
        <route edges="1Ni 4Ni 7Ni 7So" />
    </vehicle>
    <vehicle depart="328.57" id="230">
        <route edges="1Ni 4Ni 3Ei 3Wo" />
    </vehicle>
    <vehicle depart="330.00" id="231">
        <route edges="0Ni 1Wi 2Wi 5Ni 8Ni 7Ei" />
    </vehicle>
    <vehicle depart="331.43" id="232">
        <route edges="8Ei 7Ei 6Ei 3Si" />
    </vehicle>
    <vehicle depart="332.86" id="233">
        <route edges="5Ei 4Ei 3Ei 6Ni" />
    </vehicle>
    <vehicle depart="334.29" id="234">
        <route edges="0Wi 1Wi 2Wi 5Ni 8Ni 8So" />
    </vehicle>
    <vehicle depart="335.71" id="235">
        <route edges="6Si 7Wi 8Wi 5Si 5Eo" />
    </vehicle>
    <vehicle depart="337.14" id="236">
        <route edges="0Ni 1Wi 2Wi 5Ni 8Ni" />
    </vehicle>
    <vehicle depart="338.57" id="237">
        <route edges="0Wi 1Wi 4Ni 7Ni 8Wi" />
    </vehicle>
    <vehicle depart="340.00" id="238">
        <route edges="6Si 7Wi 4Si 1Si 2Wi" />
    </vehicle>
    <vehicle depart="341.43" id="239">
        <route edges="6Wi 7Wi 8Wi 8Eo" />
    </vehicle>
    <vehicle depart="342.86" id="240">
        <route edges="2Ei 1Ei 0Ei 0Wo" />
    </vehicle>
    <vehicle depart="344.29" id="241">
        <route edges="2Ni 5Ni 4Ei 3Ei 6Ni" />
    </vehicle>
    <vehicle depart="345.71" id="242">
        <route edges="8Ei 5Si 4Ei 3Ei 6Ni" />
    </vehicle>
    <vehicle depart="347.14" id="243">
        <route edges="0Wi 1Wi 4Ni 7Ni 8Wi 5Si" />
    </vehicle>
    <vehicle depart="348.57" id="244">
        <route edges="6Wi 7Wi 8Wi 5Si 2Si" />
    </vehicle>
    <vehicle depart="350.00" id="245">
        <route edges="1Ni 4Ni 7Ni 8Wi" />
    </vehicle>
    <vehicle depart="351.43" id="246">
        <route edges="5Ei 2Si 1Ei 0Ei 0No" />
    </vehicle>
    <vehicle depart="352.86" id="247">
        <route edges="5Ei 2Si 1Ei 0Ei 3Ni" />
    </vehicle>
    <vehicle depart="354.29" id="248">
        <route edges="2Ei 5Ni 8Ni 7Ei 7So" />
    </vehicle>
    <vehicle depart="355.71" id="249">
        <route edges="2Ei 5Ni 8Ni 7Ei 6Ei" />
    </vehicle>
    <vehicle depart="357.14" id="250">
        <route edges="1Ni 4Ni 7Ni 6Ei" />
    </vehicle>
    <vehicle depart="358.57" id="251">
        <route edges="5Ei 8Ni 7Ei 6Ei" />
    </vehicle>
    <vehicle depart="360.00" id="252">
        <route edges="1Ni 2Wi 5Ni 8Ni 8So" />
    </vehicle>
    <vehicle depart="361.43" id="253">
        <route edges="0Ni 3Ni 6Ni" />
    </vehicle>
    <vehicle depart="362.86" id="254">
        <route edges="8Si 5Si 4Ei 3Ei 0Si" />
    </vehicle>
    <vehicle depart="364.29" id="255">
        <route edges="8Ei 5Si 2Si 1Ei 0Ei 3Ni" />
    </vehicle>
    <vehicle depart="365.71" id="256">
        <route edges="8Ei 5Si 2Si 1Ei 1No" />
    </vehicle>
    <vehicle depart="367.14" id="257">
        <route edges="7Si 4Si 1Si 1No" />
    </vehicle>
    <vehicle depart="368.57" id="258">
        <route edges="0Wi 1Wi 2Wi 5Ni 8Ni 8So" />
    </vehicle>
    <vehicle depart="370.00" id="259">
        <route edges="1Ni 4Ni 3Ei 3Wo" />
    </vehicle>
    <vehicle depart="371.43" id="260">
        <route edges="6Wi 7Wi 8Wi" />
    </vehicle>
    <vehicle depart="372.86" id="261">
        <route edges="6Wi 7Wi 8Wi 5Si 5Eo" />
    </vehicle>
    <vehicle depart="374.29" id="262">
        <route edges="0Wi 1Wi 2Wi 5Ni" />
    </vehicle>
    <vehicle depart="375.71" id="263">
        <route edges="3Wi 4Wi 5Wi 2Si" />
    </vehicle>
    <vehicle depart="377.14" id="264">
        <route edges="8Ei 5Si 2Si 1Ei 0Ei 3Ni" />
    </vehicle>
    <vehicle depart="378.57" id="265">
        <route edges="3Wi 4Wi 5Wi 8Ni 8So" />
    </vehicle>
    <vehicle depart="380.00" id="266">
        <route edges="2Ni 5Ni 8Ni 7Ei 6Ei 6Wo" />
    </vehicle>
    <vehicle depart="381.43" id="267">
        <route edges="2Ni 5Ni 8Ni 7Ei 6Ei 6Wo" />
    </vehicle>
    <vehicle depart="382.86" id="268">
        <route edges="0Wi 1Wi 2Wi" />
    </vehicle>
    <vehicle depart="384.29" id="269">
        <route edges="0Ni 1Wi 4Ni 7Ni 6Ei" />
    </vehicle>
    <vehicle depart="385.71" id="270">
        <route edges="2Ni 5Ni 4Ei 7Ni" />
    </vehicle>
    <vehicle depart="387.14" id="271">
        <route edges="2Ni 5Ni 8Ni 8So" />
    </vehicle>
    <vehicle depart="388.57" id="272">
        <route edges="2Ni 5Ni 8Ni 8Eo" />
    </vehicle>
    <vehicle depart="390.00" id="273">
        <route edges="0Ni 1Wi 4Ni 7Ni 7So" />
    </vehicle>
    <vehicle depart="391.43" id="274">
        <route edges="8Si 5Si 4Ei 3Ei 0Si 1Wi" />
    </vehicle>
    <vehicle depart="392.86" id="275">
        <route edges="0Ni 3Ni 6Ni 6So" />
    </vehicle>
    <vehicle depart="394.29" id="276">
        <route edges="5Ei 2Si 1Ei 0Ei 0No" />
    </vehicle>
    <vehicle depart="395.71" id="277">
        <route edges="2Ei 5Ni 4Ei 3Ei" />
    </vehicle>
    <vehicle depart="397.14" id="278">
        <route edges="1Ni 2Wi 5Ni 5Eo" />
    </vehicle>
    <vehicle depart="398.57" id="279">
        <route edges="8Si 5Si 2Si 2Eo" />
    </vehicle>
    <vehicle depart="400.00" id="280">
        <route edges="6Si 3Si 0Si 0No" />
    </vehicle>
    <vehicle depart="401.43" id="281">
        <route edges="8Ei 5Si 2Si 1Ei 0Ei 3Ni" />
    </vehicle>
    <vehicle depart="402.86" id="282">
        <route edges="5Ei 2Si 1Ei 0Ei 3Ni" />
    </vehicle>
    <vehicle depart="404.29" id="283">
        <route edges="8Si 5Si 2Si 2No" />
    </vehicle>
    <vehicle depart="405.71" id="284">
        <route edges="5Ei 4Ei 3Ei" />
    </vehicle>
    <vehicle depart="407.14" id="285">
        <route edges="6Wi 7Wi 4Si 5Wi" />
    </vehicle>
    <vehicle depart="408.57" id="286">
        <route edges="7Si 8Wi 5Si 5Eo" />
    </vehicle>
    <vehicle depart="410.00" id="287">
        <route edges="3Wi 4Wi 7Ni 7So" />
    </vehicle>
    <vehicle depart="411.43" id="288">
        <route edges="2Ni 5Ni 4Ei 3Ei 3Wo" />
    </vehicle>
    <vehicle depart="412.86" id="289">
        <route edges="8Si 5Si 4Ei 1Si" />
    </vehicle>
    <vehicle depart="414.29" id="290">
        <route edges="0Ni 1Wi 2Wi 5Ni 8Ni 8So" />
    </vehicle>
    <vehicle depart="415.71" id="291">
        <route edges="6Wi 7Wi 8Wi 8Eo" />
    </vehicle>
    <vehicle depart="417.14" id="292">
        <route edges="3Wi 4Wi 5Wi 2Si 2Eo" />
    </vehicle>
    <vehicle depart="418.57" id="293">
        <route edges="6Si 3Si 0Si" />
    </vehicle>
    <vehicle depart="420.00" id="294">
        <route edges="0Ni 3Ni 6Ni 6So" />
    </vehicle>
    <vehicle depart="421.43" id="295">
        <route edges="8Ei 5Si 4Ei 3Ei 6Ni" />
    </vehicle>
    <vehicle depart="422.86" id="296">
        <route edges="0Ni 1Wi 2Wi 2Eo" />
    </vehicle>
    <vehicle depart="424.29" id="297">
        <route edges="6Si 7Wi 4Si 1Si 0Ei" />
    </vehicle>
    <vehicle depart="425.71" id="298">
        <route edges="2Ni 5Ni 8Ni 7Ei 7So" />
    </vehicle>
    <vehicle depart="427.14" id="299">
        <route edges="8Ei 5Si 4Ei 3Ei 0Si" />
    </vehicle>
    <vehicle depart="428.57" id="300">
        <route edges="2Ei 1Ei 0Ei 0No" />
    </vehicle>
    <vehicle depart="430.00" id="301">
        <route edges="3Wi 4Wi 1Si 2Wi" />
    </vehicle>
    <vehicle depart="431.43" id="302">
        <route edges="6Wi 7Wi 8Wi 5Si 2Si 2Eo" />
    </vehicle>
    <vehicle depart="432.86" id="303">
        <route edges="5Ei 2Si 1Ei 0Ei 3Ni" />
    </vehicle>
    <vehicle depart="434.29" id="304">
        <route edges="3Wi 4Wi 5Wi 5Eo" />
    </vehicle>
    <vehicle depart="435.71" id="305">